C4H10O
APtclcactv05102310013D 0   0.00000     0.00000
 
 15 14  0  0  0  0  0  0  0  0999 V2000
    2.4970    0.3232    0.0000 C   0  0  0  0  0  0  0  0  0  0  0  0
    1.2389   -0.5475   -0.0000 C   0  0  0  0  0  0  0  0  0  0  0  0
   -0.0014    0.3484    0.0000 C   0  0  0  0  0  0  0  0  0  0  0  0
   -1.1764   -0.4649    0.0000 O   0  0  0  0  0  0  0  0  0  0  0  0
   -2.3972    0.2778   -0.0000 C   0  0  0  0  0  0  0  0  0  0  0  0
    2.5033    0.9525    0.8900 H   0  0  0  0  0  0  0  0  0  0  0  0
    3.3806   -0.3150    0.0000 H   0  0  0  0  0  0  0  0  0  0  0  0
    2.5033    0.9525   -0.8900 H   0  0  0  0  0  0  0  0  0  0  0  0
    1.2326   -1.1768   -0.8900 H   0  0  0  0  0  0  0  0  0  0  0  0
    1.2326   -1.1768    0.8900 H   0  0  0  0  0  0  0  0  0  0  0  0
    0.0050    0.9776    0.8900 H   0  0  0  0  0  0  0  0  0  0  0  0
    0.0050    0.9776   -0.8900 H   0  0  0  0  0  0  0  0  0  0  0  0
   -2.4406    0.9056    0.8900 H   0  0  0  0  0  0  0  0  0  0  0  0
   -2.4406    0.9056   -0.8900 H   0  0  0  0  0  0  0  0  0  0  0  0
   -3.2417   -0.4114   -0.0000 H   0  0  0  0  0  0  0  0  0  0  0  0
  1  2  1  0  0  0  0
  2  3  1  0  0  0  0
  3  4  1  0  0  0  0
  4  5  1  0  0  0  0
  1  6  1  0  0  0  0
  1  7  1  0  0  0  0
  1  8  1  0  0  0  0
  2  9  1  0  0  0  0
  2 10  1  0  0  0  0
  3 11  1  0  0  0  0
  3 12  1  0  0  0  0
  5 13  1  0  0  0  0
  5 14  1  0  0  0  0
  5 15  1  0  0  0  0
M  END
$$$$
